Proj Title=precip_model
Current Plan=p05
Default Exp/Contr=0.3,0.1
English Units
Geom File=g01
Geom File=g03
Geom File=g04
Geom File=g05
Geom File=g02
Geom File=g09
Geom File=g08
Geom File=g11
Geom File=g12
Geom File=g13
Geom File=g14
Unsteady File=u01
Unsteady File=u02
Unsteady File=u03
Unsteady File=u04
Unsteady File=u05
Plan File=p02
Plan File=p08
Plan File=p09
Plan File=p03
Plan File=p07
Plan File=p04
Plan File=p10
Plan File=p11
Plan File=p12
Plan File=p13
Plan File=p14
Plan File=p15
Plan File=p16
Plan File=p17
Plan File=p18
Plan File=p19
Plan File=p01
Plan File=p05
Background Map Layer=DAs
Background Map Layer=culs
Background Map Layer=byhand2
Background Map Layer=CulvertCenterline
Background Map Layer=culverts 1d
Background Map Layer=SurveyPts_prj
Background Map Layer=TankAreas
Background Map Layer=DAs
Y Axis Title=Elevation
X Axis Title(PF)=Main Channel Distance
X Axis Title(XS)=Station
BEGIN DESCRIPTION:

END DESCRIPTION:
DSS Start Date=01JAN2020
DSS Start Time=00:00
DSS End Date=01JAN2020
DSS End Time=24:00
DSS File=dss
DSS Export Filename=
DSS Export Rating Curves= 0 
DSS Export Rating Curve Sorted= 0 
DSS Export Volume Flow Curves= 0 
DXF Filename=
DXF OffsetX= 0 
DXF OffsetY= 0 
DXF ScaleX= 1 
DXF ScaleY= 10 
GIS Export Profiles= 0 
